[General]
#####Config#####
# sets the transport to "HomaTransport" and the parameters for that transport.

# simulation global configuration options
simtime-scale = -15
sim-time-limit = 10000ms
cmdenv-express-mode = false
warmup-period = 0ms
network = SimpleNetwork
num-rngs = 1

##### Don't change the following config line. parseXMLConfig() ######
#### function in WorkloadSynthesizer class depends on this line. ####
**.host[*].trafficGeneratorApp[0].destAddresses = moduleListByPath("**.host[*]")

############# per module configuration ###############
# Note: if you modified any of the parameters under this section make sure to
# reflect appropriate changes to IPAddress assignment section in
# IPv4Configurator section in config.xml.
SimpleNetwork.numServersPerTor = ${numServersPerTor = 4}
SimpleNetwork.numTors = ${numTors = 1}
SimpleNetwork.fabricLinkSpeed = ${fabricLinkSpeed = 40Gbps}
SimpleNetwork.nicLinkSpeed = ${nicLinkSpeed = 10Gbps}
SimpleNetwork.edgeLinkDelay = ${edgeLinkDelay = 0.0us}
SimpleNetwork.fabricLinkDelay = ${fabricLinkDelay = 0.0us}
SimpleNetwork.hostSwTurnAroundTime = ${hostSwTurnAroundTime = 0.5us}
SimpleNetwork.hostNicSxThinkTime = ${hostNicSxThinkTime = 0.5us}
SimpleNetwork.switchFixDelay = ${switchFixDelay = 0.25us}
SimpleNetwork.isFabricCutThrough = ${isFabricCutThrough = false}
**.host[*].numTrafficGeneratorApp = 1
**.eth[*].queueType = "DropTailQueue"

######################## Homa Transport Parameters ###############################
#rttBytes is computed as sending one full packet in one way and a grant in the other way.
**.host[*].**.rttBytes = ${RTT=0x2710} B ##10000B is the rttBytes (ie. rtt*nicLinkSpeed).
**.host[*].transportSchemeType = "${transportSchemeType = HomaTransport}"
**.host[*].transportScheme.isRoundRobinScheduler = ${isRoundRobinScheduler = false}
**.host[*].transportScheme.useUnschRateInScheduler = ${useUnschRateInScheduler = false}
**.host[*].transportScheme.maxOutstandingRecvBytes = ${maxOutstandingRecvBytes = $RTT} B
# Possible string values: STATIC_CBF_UNIFORM, STATIC_CDF_UNIFORM, STATIC_CBF_GRADUATED
**.host[*].transportScheme.unschedPrioResolutionMode = "${unschedPrioResolutionMode = STATIC_CBF_GRADUATED}"
# Possible values 1.0/2.0, 2.0/3.0, 4.0/3.0. Lower number, mean higher priorities carry more traffic
**.host[*].transportScheme.unschedPrioUsageWeight = ${unschedPrioUsageWeight = 1}
**.host[*].transportScheme.cbfCapMsgSize = "${cbfCapMsgSize = $RTT}"
**.host[*].transportScheme.boostTailBytesPrio = "${boostTailBytesPrio = $RTT}"
**.host[*].transportScheme.defaultReqBytes = ${defaultReqBytes = 1442 }B
**.host[*].transportScheme.defaultUnschedBytes = ${defaultUnschedBytes = 7886 }B
**.host[*].transportScheme.senderScheme = "${senderScheme = SRBF}" #Possible values: OBSERVE_PKT_PRIOS, SRBF
**.host[*].transportScheme.accountForGrantTraffic = ${accountForGrantTraffic = true}
**.host[*].transportScheme.linkCheckBytes = ${linkCheckBytes = -1}B
**.host[*].transportScheme.localPort = 2222
**.host[*].transportScheme.destPort = 2222
**.eth[*].**.transportType = "HomaTransport"
**.realLoadFactor = ${rlf=0.1, 0.15, 0.2, 0.25, 0.3, 0.35, 0.4, 0.45, 0.5, 0.55, 0.6, 0.65, 0.7, 0.73, 0.77, 0.8, 0.83, 0.87, 0.9}
#result-dir = results/testing/unschedPrio/LoadFactor__${rlf}--UnschedResolutionMode__${unschedPrioResolutionMode}--boostTailBytesPrio__${boostTailBytesPrio}


[Config RecordAllStats]
#enable vector recording for globalListener
**.globalListener.**.result-recording-modes = all
**.globalListener.**.vector-recording = true

#disable vector recording for all other modules
**.vector-recording = false

#WorkloadSynthesizer stats, only non templated ones are enabled
**.trafficGeneratorApp[*].sentMsg.result-recording-modes = all
**.trafficGeneratorApp[*].rcvdMsg.result-recording-modes = all
**.trafficGeneratorApp[*].msgE2EDelay.result-recording-modes = all
#**.trafficGeneratorApp[*].**.result-recording-modes = all

#HomaTransport stats
**.transportScheme.**.result-recording-modes = all

#EthernetMac stats
**.mac.txPk.result-recording-modes = all
**.mac.rxPkOk.result-recording-modes = all
**.mac.frameRcvdTimeStamptAtMAC.result-recording-modes = all
**.mac.frameSentTimeStamptAtMAC.result-recording-modes = all

#DropTailQueue stats
**.dataQueue.rcvdPk.result-recording-modes = all
**.dataQueue.queueLength.result-recording-modes = all
**.dataQueue.queueByteLength.result-recording-modes = all
**.dataQueue.queueingTime.result-recording-modes = all
**.dataQueue.requestQueueingTime.result-recording-modes = all
**.dataQueue.grantQueueingTime.result-recording-modes = all
**.dataQueue.schedDataQueueingTime.result-recording-modes = all
**.dataQueue.unschedDataQueueingTime.result-recording-modes = all

# Exclude every other stats from recording
**.result-recording-modes = -

[Config test]
extends = RecordAllStats
**.host[*].trafficGeneratorApp[*].typename = "WorkloadSynthesizer"
**.host[*].**.workloadType = "${workloadType = SIMPLE_WORKLOAD}"
**.host[*].trafficGeneratorApp[*].msgSizeRanges = "${msgSizeRanges =1 2 3 4 5 6 7 8 9 10 11 12 13 14 15 16 18 20 22 25 28 31 35 39 44 49 55 61 68 76 85 95 107 119 133 149 167 186 208 233 260 291 325 364 406 454 508 600 700 800 800 900 1000 1050 1100 1200 1500 1300 4000 5000 8000 0 10000 25000 50000 100000}"
**.host[*].trafficGeneratorApp[*].loadFactor = ${loadFactor = $rlf*0.1}
**.host[*].trafficGeneratorApp[*].interArrivalDist = "${interArrivalDist = exponential}"
**.host[*].trafficGeneratorApp[*].startTime = ${startTime = 0s}
**.host[*].trafficGeneratorApp[*].stopTime = ${stopTime = 3.4s, 3.4s, 2.25s, 2.25s, 2.25s, 2.25s, 2.25s, 2.25s, 2s, 2s, 2s, 2s, 2s, 1.5s, 1.5s, 1.2s, 1.2s, 1s, 0.75s ! rlf}
seed-set = ${repetition}
seed-0-mt = ${seedInd = 0..18 ! rlf}
**.host[*].transportScheme.prioLevels = ${prioLevels = 8}
**.host[*].transportScheme.adaptiveSchedPrioLevels = ${adaptiveSchedPrioLevels = 1}
**.host[*].transportScheme.numSendersToKeepGranted = ${numSendersToKeepGranted = 1}
**.host[*].transportScheme.prioResolverPrioLevels = ${prioResolverPrioLevels = $prioLevels-$adaptiveSchedPrioLevels}
result-dir = results/simple/SimpleWorkload/test



[Config SimpleWorkload]
extends = RecordAllStats
**.host[*].trafficGeneratorApp[*].typename = "WorkloadSynthesizer"
**.host[*].**.workloadType = "${workloadType = SIMPLE_WORKLOAD}"
**.host[*].trafficGeneratorApp[*].msgSizeRanges = "${msgSizeRanges =1 2 3 4 5 6 7 8 9 10 11 12 13 14 15 16 18 20 22 25 28 31 35 39 44 49 55 61 68 76 85 95 107 119 133 149 167 186 208 233 260 291 325 364 406 454 508 600 700 800 800 900 1000 1050 1100 1200 1500 1300 4000 5000 8000 0 10000 25000 50000 100000}"
**.host[*].trafficGeneratorApp[*].loadFactor = ${loadFactor = $rlf*0.1}
**.host[*].trafficGeneratorApp[*].interArrivalDist = "${interArrivalDist = exponential}"
**.host[*].trafficGeneratorApp[*].startTime = ${startTime = 0s}
**.host[*].trafficGeneratorApp[*].stopTime = ${stopTime = 3.4s, 3.4s, 2.25s, 2.25s, 2.25s, 2.25s, 2.25s, 2.25s, 2s, 2s, 2s, 2s, 2s, 1.5s, 1.5s, 1.2s, 1.2s, 1s, 0.75s ! rlf}
seed-set = ${repetition}
seed-0-mt = ${seedInd = 0..18 ! rlf}
**.host[*].transportScheme.prioLevels = ${prioLevels = 8}
**.host[*].transportScheme.adaptiveSchedPrioLevels = ${adaptiveSchedPrioLevels = 1}
**.host[*].transportScheme.numSendersToKeepGranted = ${numSendersToKeepGranted = 1}
**.host[*].transportScheme.prioResolverPrioLevels = ${prioResolverPrioLevels = $prioLevels-$adaptiveSchedPrioLevels}
result-dir = results/simple/SimpleWorkload__${linkCheckBytes}




